Version 4
SHEET 1 1260 816
WIRE 48 -80 0 -80
WIRE 464 -80 48 -80
WIRE 464 -32 464 -80
WIRE 304 0 80 0
WIRE 0 32 0 -80
WIRE 48 48 48 -80
WIRE 96 48 48 48
WIRE 464 80 464 48
WIRE 96 112 96 48
WIRE 320 128 288 128
WIRE -96 160 -112 160
WIRE 0 160 0 112
WIRE 0 160 -16 160
WIRE 96 160 96 144
WIRE 96 160 0 160
WIRE 80 176 80 0
WIRE 96 176 80 176
WIRE 352 192 288 192
WIRE 0 208 0 160
WIRE -176 256 -192 256
WIRE -160 256 -176 256
WIRE -112 256 -112 160
WIRE -64 256 -112 256
WIRE 48 272 48 48
WIRE 96 272 96 208
WIRE 96 272 48 272
WIRE -192 320 -192 256
WIRE 304 320 304 0
WIRE 352 320 352 272
WIRE 352 320 304 320
WIRE 48 336 48 272
WIRE 352 336 352 320
WIRE -192 416 -192 400
WIRE 0 416 0 304
WIRE 0 416 -192 416
WIRE 48 416 48 400
WIRE 48 416 0 416
WIRE 208 416 48 416
WIRE 352 416 352 400
WIRE 352 416 208 416
WIRE 464 416 464 176
WIRE 464 416 352 416
WIRE 208 480 208 416
FLAG 208 480 0
SYMBOL npn -64 208 R0
SYMATTR InstName Q1
SYMATTR Value kt315g
SYMBOL cap 32 336 R0
WINDOW 3 36 56 Left 2
SYMATTR Value 220µ
SYMATTR InstName C2
SYMBOL cap 336 336 R0
SYMATTR InstName C3
SYMATTR Value 0.1µ
SYMBOL res 0 144 R90
WINDOW 0 0 56 VBottom 2
WINDOW 3 39 56 VTop 2
SYMATTR InstName R1
SYMATTR Value 220k
SYMBOL res 16 128 R180
WINDOW 0 36 76 Left 2
WINDOW 3 36 40 Left 2
SYMATTR InstName R2
SYMATTR Value 10k
SYMBOL res 336 176 R0
SYMATTR InstName R5
SYMATTR Value 1m
SYMBOL voltage -192 304 R0
WINDOW 3 1167 156 Left 2
SYMATTR Value wavefile=Hlop3.wav
SYMATTR InstName V1
SYMBOL npn 400 80 R0
SYMATTR InstName Q2
SYMATTR Value kt315g
SYMBOL res 416 112 R90
WINDOW 0 0 56 VBottom 2
WINDOW 3 32 56 VTop 2
SYMATTR InstName R3
SYMATTR Value 10k
SYMBOL Dig_Add\\74HC\\74hc74.1 192 48 R0
SYMATTR InstName U1
SYMBOL cap -112 240 R90
WINDOW 0 0 32 VBottom 2
WINDOW 3 32 32 VTop 2
SYMATTR InstName C1
SYMATTR Value 4700
SYMBOL ind 448 -48 R0
SYMATTR InstName L1
SYMATTR Value 50
TEXT 592 528 Left 2 !.tran 60
TEXT 600 552 Left 2 !.include "74hc.lib"
